<?xml version="1.0" encoding="UTF-8"?>

<!-- generated on 2025-11-09 18:18:31.864189 by osmWebWizard.py UNKNOWN
<configuration>
    <net-file value="/Users/maksim/Sumo/2025-11-09-18-18-27/osm.net.xml.gz"/>
    <output-trip-file value="/Users/maksim/Sumo/2025-11-09-18-18-27/osm.passenger.trips.xml"/>
    <route-file value="/Users/maksim/Sumo/2025-11-09-18-18-27/osm.passenger.rou.xml"/>
    <prefix value="veh"/>
    <trip-attributes value="departLane=&quot;best&quot;"/>
    <fringe-start-attributes value="departSpeed=&quot;max&quot;"/>
    <vehicle-class value="passenger"/>
    <lanes value="True"/>
    <fringe-factor value="5"/>
    <allow-fringe.min-length value="1000.0"/>
    <edge-permission value="passenger"/>
    <via-edge-types value="highway.motorway,highway.motorway_link,highway.trunk_link,highway.primary_link,highway.secondary_link,highway.tertiary_link"/>
    <min-distance value="300.0"/>
    <min-distance.fringe value="10.0"/>
    <remove-loops value="True"/>
    <insertion-density value="100.0"/>
</configuration>
-->

<routes xmlns:xsi="http://www.w3.org/2001/XMLSchema-instance" xsi:noNamespaceSchemaLocation="http://sumo.dlr.de/xsd/routes_file.xsd">
    <vType id="veh_passenger" vClass="passenger"/>
    <trip id="veh0" depart="0.00" from="78863963#0" to="-34156124#0" departLane="best" type="veh_passenger" departSpeed="max"/>
    <trip id="veh1" depart="11.88" from="78863963#0" to="104372160#1" departLane="best" type="veh_passenger" departSpeed="max"/>
    <trip id="veh2" depart="23.75" from="-104372161" to="-34156124#1" departLane="best" type="veh_passenger" departSpeed="max"/>
    <trip id="veh3" depart="35.63" from="-104372161" to="-78863963#2" departLane="best" type="veh_passenger" departSpeed="max"/>
    <trip id="veh4" depart="47.51" from="-104372161" to="-78863963#2" departLane="best" type="veh_passenger" departSpeed="max"/>
    <trip id="veh5" depart="59.39" from="174701097#0" to="-78863963#2" departLane="best" type="veh_passenger"/>
    <trip id="veh6" depart="71.26" from="104372160#1" to="61646750" departLane="best" type="veh_passenger"/>
    <trip id="veh7" depart="83.14" from="61646749#0" to="61646750" departLane="best" type="veh_passenger"/>
    <trip id="veh8" depart="95.02" from="61646749#0" to="104372160#1" departLane="best" type="veh_passenger"/>
    <trip id="veh9" depart="106.89" from="34156124#0" to="-78863963#2" departLane="best" type="veh_passenger" departSpeed="max"/>
    <trip id="veh10" depart="118.77" from="34156124#0" to="61646750" departLane="best" type="veh_passenger" departSpeed="max"/>
    <trip id="veh11" depart="130.65" from="174701097#0" to="-78863963#2" departLane="best" type="veh_passenger"/>
    <trip id="veh12" depart="142.53" from="-104372161" to="-34156124#0" departLane="best" type="veh_passenger" departSpeed="max"/>
    <trip id="veh13" depart="154.40" from="78863963#0" to="61646750" departLane="best" type="veh_passenger" departSpeed="max"/>
    <trip id="veh14" depart="166.28" from="78863963#0" to="61646750" departLane="best" type="veh_passenger" departSpeed="max"/>
    <trip id="veh15" depart="178.16" from="61646749#0" to="61646750" departLane="best" type="veh_passenger"/>
    <trip id="veh16" depart="190.04" from="61646749#0" to="61646750" departLane="best" type="veh_passenger"/>
    <trip id="veh17" depart="201.91" from="104372160#1" to="61646750" departLane="best" type="veh_passenger"/>
    <trip id="veh18" depart="213.79" from="-34156124#1" to="61646750" departLane="best" type="veh_passenger"/>
    <trip id="veh19" depart="225.67" from="78863963#0" to="61646750" departLane="best" type="veh_passenger" departSpeed="max"/>
    <trip id="veh20" depart="237.54" from="78863963#0" to="61646750" departLane="best" type="veh_passenger" departSpeed="max"/>
    <trip id="veh21" depart="249.42" from="174701097#0" to="-34156124#0" departLane="best" type="veh_passenger"/>
    <trip id="veh22" depart="261.30" from="104372160#1" to="61646750" departLane="best" type="veh_passenger"/>
    <trip id="veh23" depart="273.18" from="78863963#0" to="61646750" departLane="best" type="veh_passenger" departSpeed="max"/>
    <trip id="veh24" depart="285.05" from="34156124#0" to="-78863963#2" departLane="best" type="veh_passenger" departSpeed="max"/>
    <trip id="veh25" depart="296.93" from="104372160#1" to="61646750" departLane="best" type="veh_passenger"/>
    <trip id="veh26" depart="308.81" from="78863963#0" to="61646750" departLane="best" type="veh_passenger" departSpeed="max"/>
    <trip id="veh27" depart="320.68" from="-104372161" to="-78863963#2" departLane="best" type="veh_passenger" departSpeed="max"/>
    <trip id="veh28" depart="332.56" from="104372160#1" to="61646750" departLane="best" type="veh_passenger"/>
    <trip id="veh29" depart="344.44" from="61646749#0" to="61646750" departLane="best" type="veh_passenger"/>
    <trip id="veh30" depart="356.32" from="34156124#0" to="61646750" departLane="best" type="veh_passenger" departSpeed="max"/>
    <trip id="veh31" depart="368.19" from="34156124#0" to="61646750" departLane="best" type="veh_passenger" departSpeed="max"/>
    <trip id="veh32" depart="380.07" from="34156124#0" to="-78863963#2" departLane="best" type="veh_passenger" departSpeed="max"/>
    <trip id="veh33" depart="391.95" from="34156124#0" to="-78863963#2" departLane="best" type="veh_passenger" departSpeed="max"/>
    <trip id="veh34" depart="403.82" from="104372160#1" to="61646750" departLane="best" type="veh_passenger"/>
    <trip id="veh35" depart="415.70" from="61646749#0" to="61646750" departLane="best" type="veh_passenger"/>
    <trip id="veh36" depart="427.58" from="61646749#0" to="61646750" departLane="best" type="veh_passenger"/>
    <trip id="veh37" depart="439.46" from="174701097#0" to="-34156124#0" departLane="best" type="veh_passenger"/>
    <trip id="veh38" depart="451.33" from="34156124#0" to="104372160#1" departLane="best" type="veh_passenger" departSpeed="max"/>
    <trip id="veh39" depart="463.21" from="104372160#1" to="61646750" departLane="best" type="veh_passenger"/>
    <trip id="veh40" depart="475.09" from="174701097#0" to="-78863963#2" departLane="best" type="veh_passenger"/>
    <trip id="veh41" depart="486.96" from="-104372161" to="-78863963#2" departLane="best" type="veh_passenger" departSpeed="max"/>
    <trip id="veh42" depart="498.84" from="-104372161" to="174701097#2" departLane="best" type="veh_passenger" departSpeed="max"/>
    <trip id="veh43" depart="510.72" from="34156124#0" to="104372160#1" departLane="best" type="veh_passenger" departSpeed="max"/>
    <trip id="veh44" depart="522.60" from="61646749#0" to="61646750" departLane="best" type="veh_passenger"/>
    <trip id="veh45" depart="534.47" from="34156124#0" to="-78863963#2" departLane="best" type="veh_passenger" departSpeed="max"/>
    <trip id="veh46" depart="546.35" from="-34156124#1" to="61646750" departLane="best" type="veh_passenger"/>
    <trip id="veh47" depart="558.23" from="34156124#0" to="61646750" departLane="best" type="veh_passenger" departSpeed="max"/>
    <trip id="veh48" depart="570.11" from="34156124#0" to="61646750" departLane="best" type="veh_passenger" departSpeed="max"/>
    <trip id="veh49" depart="581.98" from="78863963#0" to="61646750" departLane="best" type="veh_passenger" departSpeed="max"/>
    <trip id="veh50" depart="593.86" from="34156124#0" to="-78863963#2" departLane="best" type="veh_passenger" departSpeed="max"/>
    <trip id="veh51" depart="605.74" from="-104372161" to="-78863963#2" departLane="best" type="veh_passenger" departSpeed="max"/>
    <trip id="veh52" depart="617.61" from="104372160#1" to="104372160#1" departLane="best" type="veh_passenger"/>
    <trip id="veh53" depart="629.49" from="174701097#0" to="174701097#2" departLane="best" type="veh_passenger"/>
    <trip id="veh54" depart="641.37" from="61646749#0" to="61646750" departLane="best" type="veh_passenger"/>
    <trip id="veh55" depart="653.25" from="174701097#0" to="-34156124#0" departLane="best" type="veh_passenger"/>
    <trip id="veh56" depart="665.12" from="61646749#0" to="61646750" departLane="best" type="veh_passenger"/>
    <trip id="veh57" depart="677.00" from="-104372161" to="34156124#1" departLane="best" type="veh_passenger" departSpeed="max"/>
    <trip id="veh58" depart="688.88" from="-104372161" to="174701097#2" departLane="best" type="veh_passenger" departSpeed="max"/>
    <trip id="veh59" depart="700.75" from="78863963#0" to="104372160#1" departLane="best" type="veh_passenger" departSpeed="max"/>
    <trip id="veh60" depart="712.63" from="34156124#0" to="61646750" departLane="best" type="veh_passenger" departSpeed="max"/>
    <trip id="veh61" depart="724.51" from="34156124#0" to="61646750" departLane="best" type="veh_passenger" departSpeed="max"/>
    <trip id="veh62" depart="736.39" from="34156124#0" to="-78863963#2" departLane="best" type="veh_passenger" departSpeed="max"/>
    <trip id="veh63" depart="748.26" from="61646749#0" to="61646750" departLane="best" type="veh_passenger"/>
    <trip id="veh64" depart="760.14" from="-104372161" to="-34156124#0" departLane="best" type="veh_passenger" departSpeed="max"/>
    <trip id="veh65" depart="772.02" from="61646749#0" to="61646750" departLane="best" type="veh_passenger"/>
    <trip id="veh66" depart="783.89" from="34156124#0" to="61646750" departLane="best" type="veh_passenger" departSpeed="max"/>
    <trip id="veh67" depart="795.77" from="104372160#1" to="61646750" departLane="best" type="veh_passenger"/>
    <trip id="veh68" depart="807.65" from="104372160#1" to="61646750" departLane="best" type="veh_passenger"/>
    <trip id="veh69" depart="819.53" from="174701097#0" to="-34156124#0" departLane="best" type="veh_passenger"/>
    <trip id="veh70" depart="831.40" from="-104372161" to="-78863963#2" departLane="best" type="veh_passenger" departSpeed="max"/>
    <trip id="veh71" depart="843.28" from="34156124#1" to="104372160#1" departLane="best" type="veh_passenger"/>
    <trip id="veh72" depart="855.16" from="34156124#0" to="104372160#1" departLane="best" type="veh_passenger" departSpeed="max"/>
    <trip id="veh73" depart="867.03" from="78863963#0" to="104372160#1" departLane="best" type="veh_passenger" departSpeed="max"/>
    <trip id="veh74" depart="878.91" from="34156124#0" to="-78863963#2" departLane="best" type="veh_passenger" departSpeed="max"/>
    <trip id="veh75" depart="890.79" from="34156124#1" to="61646750" departLane="best" type="veh_passenger"/>
    <trip id="veh76" depart="902.67" from="34156124#0" to="61646750" departLane="best" type="veh_passenger" departSpeed="max"/>
    <trip id="veh77" depart="914.54" from="34156124#0" to="61646750" departLane="best" type="veh_passenger" departSpeed="max"/>
    <trip id="veh78" depart="926.42" from="78863963#0" to="61646750" departLane="best" type="veh_passenger" departSpeed="max"/>
    <trip id="veh79" depart="938.30" from="34156124#0" to="-78863963#2" departLane="best" type="veh_passenger" departSpeed="max"/>
    <trip id="veh80" depart="950.18" from="34156124#0" to="61646750" departLane="best" type="veh_passenger" departSpeed="max"/>
    <trip id="veh81" depart="962.05" from="104372160#1" to="61646750" departLane="best" type="veh_passenger"/>
    <trip id="veh82" depart="973.93" from="104372160#1" to="61646750" departLane="best" type="veh_passenger"/>
    <trip id="veh83" depart="985.81" from="174701097#0" to="174701097#2" departLane="best" type="veh_passenger"/>
    <trip id="veh84" depart="997.68" from="34156124#0" to="-78863963#2" departLane="best" type="veh_passenger" departSpeed="max"/>
    <trip id="veh85" depart="1009.56" from="78863963#0" to="61646750" departLane="best" type="veh_passenger" departSpeed="max"/>
    <trip id="veh86" depart="1021.44" from="104372160#1" to="61646750" departLane="best" type="veh_passenger"/>
    <trip id="veh87" depart="1033.32" from="61646749#0" to="61646750" departLane="best" type="veh_passenger"/>
    <trip id="veh88" depart="1045.19" from="104372160#1" to="61646750" departLane="best" type="veh_passenger"/>
    <trip id="veh89" depart="1057.07" from="34156124#0" to="61646750" departLane="best" type="veh_passenger" departSpeed="max"/>
    <trip id="veh90" depart="1068.95" from="34156124#0" to="-78863963#2" departLane="best" type="veh_passenger" departSpeed="max"/>
    <trip id="veh91" depart="1080.82" from="34156124#0" to="61646750" departLane="best" type="veh_passenger" departSpeed="max"/>
    <trip id="veh92" depart="1092.70" from="-104372161" to="174701097#2" departLane="best" type="veh_passenger" departSpeed="max"/>
    <trip id="veh93" depart="1104.58" from="34156124#0" to="61646750" departLane="best" type="veh_passenger" departSpeed="max"/>
    <trip id="veh94" depart="1116.46" from="34156124#0" to="61646750" departLane="best" type="veh_passenger" departSpeed="max"/>
    <trip id="veh95" depart="1128.33" from="61646749#0" to="61646750" departLane="best" type="veh_passenger"/>
    <trip id="veh96" depart="1140.21" from="78863963#0" to="61646750" departLane="best" type="veh_passenger" departSpeed="max"/>
    <trip id="veh97" depart="1152.09" from="34156124#1" to="61646750" departLane="best" type="veh_passenger"/>
    <trip id="veh98" depart="1163.96" from="34156124#0" to="61646750" departLane="best" type="veh_passenger" departSpeed="max"/>
    <trip id="veh99" depart="1175.84" from="-34156124#1" to="61646750" departLane="best" type="veh_passenger"/>
    <trip id="veh100" depart="1187.72" from="-34156124#1" to="61646750" departLane="best" type="veh_passenger"/>
    <trip id="veh101" depart="1199.60" from="34156124#1" to="61646750" departLane="best" type="veh_passenger"/>
    <trip id="veh102" depart="1211.47" from="104372160#1" to="61646750" departLane="best" type="veh_passenger"/>
    <trip id="veh103" depart="1223.35" from="34156124#0" to="104372160#1" departLane="best" type="veh_passenger" departSpeed="max"/>
    <trip id="veh104" depart="1235.23" from="34156124#1" to="61646750" departLane="best" type="veh_passenger"/>
    <trip id="veh105" depart="1247.10" from="34156124#0" to="61646750" departLane="best" type="veh_passenger" departSpeed="max"/>
    <trip id="veh106" depart="1258.98" from="34156124#0" to="61646750" departLane="best" type="veh_passenger" departSpeed="max"/>
    <trip id="veh107" depart="1270.86" from="34156124#0" to="104372160#1" departLane="best" type="veh_passenger" departSpeed="max"/>
    <trip id="veh108" depart="1282.74" from="104372160#1" to="61646750" departLane="best" type="veh_passenger"/>
    <trip id="veh109" depart="1294.61" from="78863963#0" to="61646750" departLane="best" type="veh_passenger" departSpeed="max"/>
    <trip id="veh110" depart="1306.49" from="78863963#0" to="61646750" departLane="best" type="veh_passenger" departSpeed="max"/>
    <trip id="veh111" depart="1318.37" from="-104372161" to="174701097#2" departLane="best" type="veh_passenger" departSpeed="max"/>
    <trip id="veh112" depart="1330.25" from="61646749#0" to="61646750" departLane="best" type="veh_passenger"/>
    <trip id="veh113" depart="1342.12" from="-104372161" to="-78863963#2" departLane="best" type="veh_passenger" departSpeed="max"/>
    <trip id="veh114" depart="1354.00" from="34156124#0" to="61646750" departLane="best" type="veh_passenger" departSpeed="max"/>
    <trip id="veh115" depart="1365.88" from="61646749#0" to="61646750" departLane="best" type="veh_passenger"/>
    <trip id="veh116" depart="1377.75" from="34156124#0" to="61646750" departLane="best" type="veh_passenger" departSpeed="max"/>
    <trip id="veh117" depart="1389.63" from="174701097#0" to="-34156124#1" departLane="best" type="veh_passenger"/>
    <trip id="veh118" depart="1401.51" from="78863963#0" to="-34156124#0" departLane="best" type="veh_passenger" departSpeed="max"/>
    <trip id="veh119" depart="1413.39" from="78863963#0" to="61646750" departLane="best" type="veh_passenger" departSpeed="max"/>
    <trip id="veh120" depart="1425.26" from="61646749#0" to="104372160#1" departLane="best" type="veh_passenger"/>
    <trip id="veh121" depart="1437.14" from="-34156124#1" to="104372160#1" departLane="best" type="veh_passenger"/>
    <trip id="veh122" depart="1449.02" from="-104372161" to="174701097#2" departLane="best" type="veh_passenger" departSpeed="max"/>
    <trip id="veh123" depart="1460.89" from="78863963#0" to="-34156124#0" departLane="best" type="veh_passenger" departSpeed="max"/>
    <trip id="veh124" depart="1472.77" from="78863963#0" to="-34156124#0" departLane="best" type="veh_passenger" departSpeed="max"/>
    <trip id="veh125" depart="1484.65" from="78863963#0" to="-34156124#0" departLane="best" type="veh_passenger" departSpeed="max"/>
    <trip id="veh126" depart="1496.53" from="-104372161" to="-78863963#2" departLane="best" type="veh_passenger" departSpeed="max"/>
    <trip id="veh127" depart="1508.40" from="104372160#1" to="61646750" departLane="best" type="veh_passenger"/>
    <trip id="veh128" depart="1520.28" from="34156124#0" to="61646750" departLane="best" type="veh_passenger" departSpeed="max"/>
    <trip id="veh129" depart="1532.16" from="174701097#0" to="-34156124#1" departLane="best" type="veh_passenger"/>
    <trip id="veh130" depart="1544.03" from="78863963#0" to="-34156124#0" departLane="best" type="veh_passenger" departSpeed="max"/>
    <trip id="veh131" depart="1555.91" from="34156124#0" to="104372160#1" departLane="best" type="veh_passenger" departSpeed="max"/>
    <trip id="veh132" depart="1567.79" from="34156124#0" to="-78863963#2" departLane="best" type="veh_passenger" departSpeed="max"/>
    <trip id="veh133" depart="1579.67" from="34156124#0" to="-78863963#2" departLane="best" type="veh_passenger" departSpeed="max"/>
    <trip id="veh134" depart="1591.54" from="34156124#0" to="61646750" departLane="best" type="veh_passenger" departSpeed="max"/>
    <trip id="veh135" depart="1603.42" from="61646749#0" to="61646750" departLane="best" type="veh_passenger"/>
    <trip id="veh136" depart="1615.30" from="78863963#0" to="61646750" departLane="best" type="veh_passenger" departSpeed="max"/>
    <trip id="veh137" depart="1627.18" from="104372161" to="-34156124#0" departLane="best" type="veh_passenger"/>
    <trip id="veh138" depart="1639.05" from="-104372161" to="-34156124#0" departLane="best" type="veh_passenger" departSpeed="max"/>
    <trip id="veh139" depart="1650.93" from="34156124#0" to="-78863963#2" departLane="best" type="veh_passenger" departSpeed="max"/>
    <trip id="veh140" depart="1662.81" from="-104372161" to="-78863963#2" departLane="best" type="veh_passenger" departSpeed="max"/>
    <trip id="veh141" depart="1674.68" from="-34156124#1" to="104372160#1" departLane="best" type="veh_passenger"/>
    <trip id="veh142" depart="1686.56" from="61646749#0" to="61646750" departLane="best" type="veh_passenger"/>
    <trip id="veh143" depart="1698.44" from="-104372161" to="-34156124#0" departLane="best" type="veh_passenger" departSpeed="max"/>
    <trip id="veh144" depart="1710.32" from="78863963#0" to="61646750" departLane="best" type="veh_passenger" departSpeed="max"/>
    <trip id="veh145" depart="1722.19" from="-104372161" to="-34156124#0" departLane="best" type="veh_passenger" departSpeed="max"/>
    <trip id="veh146" depart="1734.07" from="104372160#1" to="61646750" departLane="best" type="veh_passenger"/>
    <trip id="veh147" depart="1745.95" from="34156124#0" to="61646750" departLane="best" type="veh_passenger" departSpeed="max"/>
    <trip id="veh148" depart="1757.82" from="78863963#0" to="-34156124#0" departLane="best" type="veh_passenger" departSpeed="max"/>
    <trip id="veh149" depart="1769.70" from="-104372161" to="174701097#2" departLane="best" type="veh_passenger" departSpeed="max"/>
    <trip id="veh150" depart="1781.58" from="78863963#0" to="104372160#1" departLane="best" type="veh_passenger" departSpeed="max"/>
    <trip id="veh151" depart="1793.46" from="34156124#0" to="61646750" departLane="best" type="veh_passenger" departSpeed="max"/>
    <trip id="veh152" depart="1805.33" from="34156124#0" to="61646750" departLane="best" type="veh_passenger" departSpeed="max"/>
    <trip id="veh153" depart="1817.21" from="-104372161" to="174701097#2" departLane="best" type="veh_passenger" departSpeed="max"/>
    <trip id="veh154" depart="1829.09" from="-104372161" to="-34156124#1" departLane="best" type="veh_passenger" departSpeed="max"/>
    <trip id="veh155" depart="1840.96" from="78863963#0" to="61646750" departLane="best" type="veh_passenger" departSpeed="max"/>
    <trip id="veh156" depart="1852.84" from="78863963#0" to="104372160#1" departLane="best" type="veh_passenger" departSpeed="max"/>
    <trip id="veh157" depart="1864.72" from="61646749#0" to="61646750" departLane="best" type="veh_passenger"/>
    <trip id="veh158" depart="1876.60" from="61646749#0" to="61646750" departLane="best" type="veh_passenger"/>
    <trip id="veh159" depart="1888.47" from="61646749#0" to="61646750" departLane="best" type="veh_passenger"/>
    <trip id="veh160" depart="1900.35" from="78863963#0" to="61646750" departLane="best" type="veh_passenger" departSpeed="max"/>
    <trip id="veh161" depart="1912.23" from="174701097#0" to="174701097#2" departLane="best" type="veh_passenger"/>
    <trip id="veh162" depart="1924.10" from="78863963#0" to="61646750" departLane="best" type="veh_passenger" departSpeed="max"/>
    <trip id="veh163" depart="1935.98" from="174701097#0" to="-34156124#0" departLane="best" type="veh_passenger"/>
    <trip id="veh164" depart="1947.86" from="-104372161" to="174701097#2" departLane="best" type="veh_passenger" departSpeed="max"/>
    <trip id="veh165" depart="1959.74" from="-34156124#1" to="61646750" departLane="best" type="veh_passenger"/>
    <trip id="veh166" depart="1971.61" from="174701097#0" to="-34156124#0" departLane="best" type="veh_passenger"/>
    <trip id="veh167" depart="1983.49" from="78863963#0" to="61646750" departLane="best" type="veh_passenger" departSpeed="max"/>
    <trip id="veh168" depart="1995.37" from="34156124#0" to="61646750" departLane="best" type="veh_passenger" departSpeed="max"/>
    <trip id="veh169" depart="2007.25" from="-104372161" to="-78863963#2" departLane="best" type="veh_passenger" departSpeed="max"/>
    <trip id="veh170" depart="2019.12" from="-104372161" to="-78863963#2" departLane="best" type="veh_passenger" departSpeed="max"/>
    <trip id="veh171" depart="2031.00" from="-104372161" to="174701097#2" departLane="best" type="veh_passenger" departSpeed="max"/>
    <trip id="veh172" depart="2042.88" from="78863963#0" to="-34156124#0" departLane="best" type="veh_passenger" departSpeed="max"/>
    <trip id="veh173" depart="2054.75" from="34156124#0" to="61646750" departLane="best" type="veh_passenger" departSpeed="max"/>
    <trip id="veh174" depart="2066.63" from="104372161" to="-34156124#0" departLane="best" type="veh_passenger"/>
    <trip id="veh175" depart="2078.51" from="34156124#0" to="61646750" departLane="best" type="veh_passenger" departSpeed="max"/>
    <trip id="veh176" depart="2090.39" from="61646749#0" to="104372160#1" departLane="best" type="veh_passenger"/>
    <trip id="veh177" depart="2102.26" from="78863963#0" to="61646750" departLane="best" type="veh_passenger" departSpeed="max"/>
    <trip id="veh178" depart="2114.14" from="34156124#0" to="61646750" departLane="best" type="veh_passenger" departSpeed="max"/>
    <trip id="veh179" depart="2126.02" from="174701097#0" to="-34156124#0" departLane="best" type="veh_passenger"/>
    <trip id="veh180" depart="2137.89" from="61646749#0" to="104372160#1" departLane="best" type="veh_passenger"/>
    <trip id="veh181" depart="2149.77" from="78863963#0" to="61646750" departLane="best" type="veh_passenger" departSpeed="max"/>
    <trip id="veh182" depart="2161.65" from="34156124#1" to="61646750" departLane="best" type="veh_passenger"/>
    <trip id="veh183" depart="2173.53" from="34156124#1" to="61646750" departLane="best" type="veh_passenger"/>
    <trip id="veh184" depart="2185.40" from="174701097#0" to="34156124#1" departLane="best" type="veh_passenger"/>
    <trip id="veh185" depart="2197.28" from="104372160#1" to="61646750" departLane="best" type="veh_passenger"/>
    <trip id="veh186" depart="2209.16" from="61646749#0" to="104372160#1" departLane="best" type="veh_passenger"/>
    <trip id="veh187" depart="2221.03" from="104372161" to="-34156124#0" departLane="best" type="veh_passenger"/>
    <trip id="veh188" depart="2232.91" from="78863963#0" to="61646750" departLane="best" type="veh_passenger" departSpeed="max"/>
    <trip id="veh189" depart="2244.79" from="78863963#0" to="61646750" departLane="best" type="veh_passenger" departSpeed="max"/>
    <trip id="veh190" depart="2256.67" from="34156124#0" to="61646750" departLane="best" type="veh_passenger" departSpeed="max"/>
    <trip id="veh191" depart="2268.54" from="34156124#0" to="61646750" departLane="best" type="veh_passenger" departSpeed="max"/>
    <trip id="veh192" depart="2280.42" from="34156124#0" to="61646750" departLane="best" type="veh_passenger" departSpeed="max"/>
    <trip id="veh193" depart="2292.30" from="-104372161" to="-34156124#0" departLane="best" type="veh_passenger" departSpeed="max"/>
    <trip id="veh194" depart="2304.17" from="34156124#0" to="61646750" departLane="best" type="veh_passenger" departSpeed="max"/>
    <trip id="veh195" depart="2316.05" from="104372160#1" to="61646750" departLane="best" type="veh_passenger"/>
    <trip id="veh196" depart="2327.93" from="-104372161" to="-34156124#0" departLane="best" type="veh_passenger" departSpeed="max"/>
    <trip id="veh197" depart="2339.81" from="104372160#1" to="61646750" departLane="best" type="veh_passenger"/>
    <trip id="veh198" depart="2351.68" from="-104372161" to="-78863963#2" departLane="best" type="veh_passenger" departSpeed="max"/>
    <trip id="veh199" depart="2363.56" from="-34156124#1" to="61646750" departLane="best" type="veh_passenger"/>
    <trip id="veh200" depart="2375.44" from="34156124#0" to="104372160#1" departLane="best" type="veh_passenger" departSpeed="max"/>
    <trip id="veh201" depart="2387.32" from="174701097#0" to="-34156124#0" departLane="best" type="veh_passenger"/>
    <trip id="veh202" depart="2399.19" from="104372160#1" to="61646750" departLane="best" type="veh_passenger"/>
    <trip id="veh203" depart="2411.07" from="78863963#0" to="61646750" departLane="best" type="veh_passenger" departSpeed="max"/>
    <trip id="veh204" depart="2422.95" from="104372160#1" to="61646750" departLane="best" type="veh_passenger"/>
    <trip id="veh205" depart="2434.82" from="34156124#0" to="61646750" departLane="best" type="veh_passenger" departSpeed="max"/>
    <trip id="veh206" depart="2446.70" from="78863963#0" to="61646750" departLane="best" type="veh_passenger" departSpeed="max"/>
    <trip id="veh207" depart="2458.58" from="104372160#1" to="104372160#1" departLane="best" type="veh_passenger"/>
    <trip id="veh208" depart="2470.46" from="78863963#0" to="61646750" departLane="best" type="veh_passenger" departSpeed="max"/>
    <trip id="veh209" depart="2482.33" from="78863963#0" to="61646750" departLane="best" type="veh_passenger" departSpeed="max"/>
    <trip id="veh210" depart="2494.21" from="78863963#0" to="61646750" departLane="best" type="veh_passenger" departSpeed="max"/>
    <trip id="veh211" depart="2506.09" from="78863963#0" to="-34156124#0" departLane="best" type="veh_passenger" departSpeed="max"/>
    <trip id="veh212" depart="2517.96" from="78863963#0" to="61646750" departLane="best" type="veh_passenger" departSpeed="max"/>
    <trip id="veh213" depart="2529.84" from="174701097#0" to="174701097#2" departLane="best" type="veh_passenger"/>
    <trip id="veh214" depart="2541.72" from="78863963#0" to="61646750" departLane="best" type="veh_passenger" departSpeed="max"/>
    <trip id="veh215" depart="2553.60" from="78863963#0" to="61646750" departLane="best" type="veh_passenger" departSpeed="max"/>
    <trip id="veh216" depart="2565.47" from="104372160#1" to="61646750" departLane="best" type="veh_passenger"/>
    <trip id="veh217" depart="2577.35" from="78863963#0" to="61646750" departLane="best" type="veh_passenger" departSpeed="max"/>
    <trip id="veh218" depart="2589.23" from="61646749#0" to="61646750" departLane="best" type="veh_passenger"/>
    <trip id="veh219" depart="2601.10" from="104372160#1" to="61646750" departLane="best" type="veh_passenger"/>
    <trip id="veh220" depart="2612.98" from="-104372161" to="34156124#1" departLane="best" type="veh_passenger" departSpeed="max"/>
    <trip id="veh221" depart="2624.86" from="174701097#0" to="174701097#2" departLane="best" type="veh_passenger"/>
    <trip id="veh222" depart="2636.74" from="34156124#0" to="-78863963#2" departLane="best" type="veh_passenger" departSpeed="max"/>
    <trip id="veh223" depart="2648.61" from="34156124#0" to="-78863963#2" departLane="best" type="veh_passenger" departSpeed="max"/>
    <trip id="veh224" depart="2660.49" from="-34156124#1" to="61646750" departLane="best" type="veh_passenger"/>
    <trip id="veh225" depart="2672.37" from="-104372161" to="174701097#2" departLane="best" type="veh_passenger" departSpeed="max"/>
    <trip id="veh226" depart="2684.24" from="78863963#0" to="-34156124#0" departLane="best" type="veh_passenger" departSpeed="max"/>
    <trip id="veh227" depart="2696.12" from="78863963#0" to="-34156124#0" departLane="best" type="veh_passenger" departSpeed="max"/>
    <trip id="veh228" depart="2708.00" from="61646749#0" to="61646750" departLane="best" type="veh_passenger"/>
    <trip id="veh229" depart="2719.88" from="34156124#0" to="104372160#1" departLane="best" type="veh_passenger" departSpeed="max"/>
    <trip id="veh230" depart="2731.75" from="-104372161" to="-78863963#2" departLane="best" type="veh_passenger" departSpeed="max"/>
    <trip id="veh231" depart="2743.63" from="-34156124#1" to="104372160#1" departLane="best" type="veh_passenger"/>